# alpha_ZrP

data_3D
_audit_creation_date            2015-12-01
_audit_creation_method          P_cif.py

_symmetry_space_group_name_H-M  'P21/c'
_symmetry_Int_Tables_number     1
_symmetry_cell_setting          monoclinic

_cell_length_a                  9.076
_cell_length_b                  5.298
_cell_length_c                  16.22
_cell_angle_alpha               90
_cell_angle_beta                111.5
_cell_angle_gamma               90

loop_
_symmetry_equiv_pos_site_id
_symmetry_equiv_pos_as_xyz
1 'x, y, z'
2 '-x, 1/2+y, 1/2-z'
3 '-x, -y, -z'
4 'x, 1/2-y, 1/2+z'

loop_
  _atom_site_label
  _atom_site_type_symbol
  _atom_site_fract_x
  _atom_site_fract_y
  _atom_site_fract_z
  _atom_site_U_iso_or_equiv
  _atom_site_adp_type
  _atom_site_occupancy
Zr1 Zr 0.7606(2) 0.250(2) 0.5144(1) 0.67(2)  Biso  1.0000
P2 P 0.0008(6) 0.752(5) 0.6129(4) 1.13(8)  Biso  1.0000
P3 P 0.4711(6) 0.255(5) 0.1044(4) 0.98(8)  Biso  1.0000
04 O 0.105(2) 0.806(5) 0.560(1) 1.7(3)  Biso  1.0000
O5 O 0.934(3) 0.486(6) 0.601(2) 2.6(4)  Biso  1.0000
O6 O 0.869(2) 0.941(5) 0.589(4) 1.6(4)  Biso  1.0000
07 O 0.104(2) 0.760(9) 0.716(1) 2.2(3)  Biso  1.0000
O8 O 0.344(3) 0.057(5) 0.062(1) 2.0(4)  Biso  1.0000
09 O 0.418(2) 0.514(5) 0.069(1) 1.6(3)  Biso  1.0000
010 O 0.512(2) 0.257(9) 0.205(1) 2.3(3)  Biso  1.0000
011 O 0.375(2) 0.814(5) 0.910(1) 1.9(4)  Biso  1.0000
012 O 0.254(2) 0.265(8) 0.259(1) 3.1(4)  Biso  1.0000
